[TITLE]
;;Project Title/Notes

[OPTIONS]
;;Option             Value
FLOW_UNITS           LPS
INFILTRATION         HORTON
FLOW_ROUTING         STEADY
LINK_OFFSETS         DEPTH
MIN_SLOPE            0
ALLOW_PONDING        NO
SKIP_STEADY_STATE    NO

START_DATE           04/01/2015
START_TIME           00:00:00
REPORT_START_DATE    04/01/2015
REPORT_START_TIME    00:00:00
END_DATE             06/01/2015
END_TIME             00:00:00
SWEEP_START          01/01
SWEEP_END            12/31
DRY_DAYS             0.25
REPORT_STEP          00:01:00
WET_STEP             00:02:00
DRY_STEP             00:05:00
ROUTING_STEP         0:00:10 
RULE_STEP            00:00:00

INERTIAL_DAMPING     PARTIAL
NORMAL_FLOW_LIMITED  BOTH
FORCE_MAIN_EQUATION  H-W
VARIABLE_STEP        0.75
LENGTHENING_STEP     0
MIN_SURFAREA         1.167
MAX_TRIALS           8
HEAD_TOLERANCE       0.0015
SYS_FLOW_TOL         5
LAT_FLOW_TOL         5
MINIMUM_STEP         0.5
THREADS              4

[EVAPORATION]
;;Data Source    Parameters
;;-------------- ----------------
CONSTANT         0.0
DRY_ONLY         NO

[JUNCTIONS]
;;Name           Elevation  MaxDepth   InitDepth  SurDepth   Aponded   
;;-------------- ---------- ---------- ---------- ---------- ----------
JP3314102514     116.879    2.621      0          100        0.865     
JP3335503420     113.349    2.892      0          100        0.301     
JP3345803001     115.611    2.389      0          100        0.363     
MH3295504178     100.203    3.911      0          0          0.266     
MH3303003382     112.761    2.819      0          0          0.82      
MH3303403572     111.13     2.496      0          0          0.602     
MH3307203688     110.405    3.535      0          0          0.449     
MH3308002676     116.702    2.262      0          0          1.756     
MH3308204278     109.509    3.066      0          0          0.859     
MH3310303812     105.872    3.265      0          0          0.678     
MH3310603809     105.961    3.221      0          0          0.053     
MH3312003355     112.401    3.173      0          0          0.668     
MH3312303547     111.478    2.721      0          0          0.586     
MH3312803252     113.907    2.012      0          0          0.794     
MH3313003662     111.41     3.116      0          0          0.503     
MH3313203915     110.033    2.825      0          0          0.67      
MH3313502815     116.37     2.099      0          0          0.656     
MH3313803939     110.478    2.917      0          0          0.456     
MH3313903246     113.849    2.072      0          0          0.56      
MH3314603043     114.519    1.969      0          0          0.638     
MH3314803346     112.566    2.911      0          0          0.255     
MH3315202553     116.757    3.093      0          0          0.797     
MH3316903340     113.462    2.394      0          0          0.834     
MH3318002642     116.327    3.161      0          0          0.74      
MH3320203524     112.224    2.672      0          0          0.463     
MH3320502421     118.521    2.314      0          0          4.434     
MH3320702732     115.94     3.502      0          0          0.435     
MH3321504084     103.035    4.87       0          0          0         
MH3322203122     113.415    3.039      0          0          0.902     
MH3322402788     115.504    3.822      0          0          0.277     
MH3322803420     112.746    2.779      0          0          0.76      
MH3323502822     115.349    3.889      0          0          0.691     
MH3323503756     106.625    2.365      0          0          0.286     
MH3323704058     103.358    3.593      0          100        0.056     
MH3326102617     117.193    3.008      0          0          0.477     
MH3326202911     114.763    3.765      0          0          0.698     
MH3328003307     113.111    2.919      0          0          1.054     
MH3328403003     114.178    3.719      0          0          0.763     
MH3329503824     106.122    3.576      0          0          0.205     
MH3330302508     117.799    2.993      0          0          0.552     
MH3331103095     113.093    4.279      0          0          0.705     
MH3331602599     117.842    2.642      0          0          0.255     
MH3331903433     112.7      2.947      0          0          0.163     
MH3333803185     112.818    3.732      0          0          0.749     
MH3334302596     117.848    2.676      0          0          0.546     
MH3336503275     112.492    4.344      0          0          0.654     
MH3339002587     118.168    2.685      0          0          2.1       
MH3339203364     112.211    4.57       0          0          0.631     
MH3339903679     107.643    3.451      0          0          0.123     
MH3340204006     112.014    2.755      0          0          0.81      
MH3341403729     107.165    3.718      0          0          0.272     
MH3341803453     110.41     4.64       0          0          0.626     
MH3344503535     109.394    3.211      0          0          0.286     
MH3345702641     117.9      2.648      0          0          0.222     
MH3347203045     115.336    2.969      0          0          0.798     
MH3347403622     108.311    4.587      0          0          0.117     
MH3349903705     112.203    2.484      0          0          0.846     
MH3350103901     113.556    2.743      0          0          0.276     
MH3351703760     113.791    2.387      0          0          0.451     
MH3352103512     110.304    3.079      0          0          0.824     
MH3353602729     117.784    3.081      0          0          0.913     
MH3355003689     113.191    2.14       0          0          0.346     
MH3355903334     114.27     2.854      0          0          0.361     
MH3358103404     113.873    2.676      0          0          1.154     
MH3359002667     117.927    3.585      0          0          1.351     
MH3359302909     117.275    2.993      0          0          0.443     
MH3360102927     117.439    3.091      0          0          0.376     
MH3361003502     113.02     3.316      0          0          0.255     
MH3361503519     109.362    5.407      0          0          0.486     
MH3361702802     117.482    3.682      0          0          0.207     
MH3362702827     117.979    3.231      0          0          0.919     
MH3365103091     116.022    3.569      0          0          0.795     
MH3366502937     117.732    3.048      0          0          0.26      
MH3367302882     118.558    2.716      0          0          0.229     
MH3367403299     116.162    2.719      0          0          0.446     
MH3367803179     116.223    3.344      0          0          0.661     
MH3367803555     112.941    3.52       0          0          0.707     
MH3372602865     118.384    2.683      0          0          0.274     
MH3374103258     114.971    2.782      0          0          0.595     
MH3374903299     112.843    3.072      0          0          0.686     
MH3375803410     110.441    3.521      0          0          0         
MH3377303378     110.673    5.078      0          0          0.709     
MH3378302846     119.152    2.613      0          0          1.267     
MH3380503144     117.281    2.668      0          0          0.058     
MH3381803513     112.127    3.502      0          0          0         
MH3384503599     114.666    2.473      0          0          0.385     

[OUTFALLS]
;;Name           Elevation  Type       Stage Data       Gated    Route To        
;;-------------- ---------- ---------- ---------------- -------- ----------------
MH3293004253     99.398     FREE                        NO                       

[CONDUITS]
;;Name           From Node        To Node          Length     Roughness  InOffset   OutOffset  InitFlow   MaxFlow   
;;-------------- ---------------- ---------------- ---------- ---------- ---------- ---------- ---------- ----------
JP3314102514.1   JP3314102514     MH3315202553     49.902     0.013      0          0.012      0          0         
JP3335503420.1   JP3335503420     MH3331903433     37.26      0.013      0          0.003      0          0         
JP3345803001.1   JP3345803001     MH3347203045     62.678     0.013      0          0.122      0          0         
MH3295504178.1   MH3295504178     MH3293004253     78.138     0.017      0          0.006      0          0         
MH3303003382.1   MH3303003382     MH3312003355     94.488     0.013      0          0.076      0          0         
MH3303403572.1   MH3303403572     MH3307203688     121.698    0.013      0          0          0          0         
MH3307203688.1   MH3307203688     MH3310603809     126.267    0.013      0          1.125      0          0         
MH3308002676.1   MH3308002676     MH3322203122     485.358    0.013      0          0.009      0          0         
MH3308204278.1   MH3308204278     MH3295504178     162.292    0.013      0          0          0          0         
MH3310303812.1   MH3310303812     MH3321504084     297.599    0.013      0          0          0          0         
MH3310603809.1   MH3310603809     MH3310303812     4.328      0.013      0          0.07       0          0         
MH3312003355.1   MH3312003355     MH3312303547     236.533    0.013      0          0.076      0          0         
MH3312303547.1   MH3312303547     MH3303403572     92.269     0.013      0          0.073      0          0         
MH3312803252.1   MH3312803252     MH3303403572     457.754    0.013      0          0          0          0         
MH3313003662.1   MH3313003662     MH3307203688     63.195     0.013      0          0.076      0          0         
MH3313203915.1   MH3313203915     MH3310303812     107.296    0.013      0          0          0          0         
MH3313502815.1   MH3313502815     MH3322402788     93.644     0.013      0          0.253      0          0         
MH3313803939.1   MH3313803939     MH3323704058     184.641    0.013      0          0          0          0         
MH3313903246.1   MH3313903246     MH3328003307     217.221    0.013      0          0          0          0         
MH3314603043.1   MH3314603043     MH3322203122     314.698    0.013      0          0.123      0          0         
MH3314803346.1   MH3314803346     MH3312003355     29.261     0.013      0          0          0          0         
MH3315202553.1   MH3315202553     MH3318002642     93.318     0.013      0          0.009      0          0         
MH3316903340.1   MH3316903340     MH3328003307     115.516    0.013      0          0.003      0          0         
MH3318002642.1   MH3318002642     MH3320702732     93.592     0.013      0          0          0          0         
MH3320203524.1   MH3320203524     MH3312303547     82.296     0.013      0          0.006      0          0         
MH3320502421.1   MH3320502421     MH3330302508     131.072    0.013      0          0          0          0         
MH3320702732.1   MH3320702732     MH3322402788     58.32      0.013      0.006      0.012      0          0         
MH3321504084.1   MH3321504084     MH3295504178     310.642    0.017      0          0          0          0         
MH3322203122.1   MH3322203122     MH3331103095     93.323     0.013      0          0.1        0          0         
MH3322402788.1   MH3322402788     MH3323502822     36.163     0.013      0          0.006      0          0         
MH3322803420.1   MH3322803420     MH3310603809     510.906    0.013      0          0.061      0          0         
MH3323502822.1   MH3323502822     MH3326202911     92.708     0.013      0          0          0          0         
MH3323503756.1   MH3323503756     MH3329503824     90.53      0.013      0          0          0          0         
MH3323704058.1   MH3323704058     MH3321504084     34.514     0.017      0          0          0          0         
MH3326102617.1   MH3326102617     MH3318002642     84.949     0.013      0          0.256      0          0         
MH3326202911.1   MH3326202911     MH3328403003     98.398     0.013      0          0.003      0          0         
MH3328003307.1   MH3328003307     MH3331903433     132.1      0.013      0          0.015      0          0         
MH3328403003.1   MH3328403003     MH3331103095     95.594     0.013      0          0.26       0          0         
MH3329503824.1   MH3329503824     MH3323704058     343.291    0.017      0          0.149      0          0         
MH3330302508.1   MH3330302508     MH3315202553     157.21     0.013      0          0          0          0         
MH3331103095.1   MH3331103095     MH3333803185     94.436     0.013      0          0.02       0          0         
MH3331602599.1   MH3331602599     MH3326102617     59.862     0.013      0          0.024      0          0         
MH3331903433.1   MH3331903433     MH3339903679     262.49     0.013      0          0.025      0          0         
MH3333803185.1   MH3333803185     MH3336503275     93.442     0.013      0          0.05       0          0         
MH3334302596.1   MH3334302596     MH3326102617     84.671     0.013      0          0.021      0          0         
MH3336503275.1   MH3336503275     MH3339203364     93.326     0.013      0          0.05       0          0         
MH3339002587.1   MH3339002587     MH3330302508     118.26     0.013      0          0.037      0          0         
MH3339203364.1   MH3339203364     MH3341803453     92.531     0.013      0          1.506      0          0         
MH3339903679.1   MH3339903679     MH3341403729     56.06      0.017      0          0.109      0          0         
MH3340204006.1   MH3340204006     MH3329503824     215.131    0.013      0          0          0          0         
MH3341403729.1   MH3341403729     MH3329503824     151.861    0.017      0          0          0          0         
MH3341803453.1   MH3341803453     MH3344503535     86.406     0.013      0          0.08       0          0         
MH3344503535.1   MH3344503535     MH3347403622     91.852     0.013      0          0.052      0          0         
MH3345702641.1   MH3345702641     MH3320702732     274.518    0.013      0          0.036      0          0         
MH3347203045.2   MH3347203045     MH3331103095     167.928    0.013      0          0          0          0         
MH3347403622.1   MH3347403622     MH3339903679     97.435     0.017      0          0          0          0         
MH3349903705.1   MH3349903705     MH3347403622     86.42      0.013      0          1.188      0          0         
MH3350103901.1   MH3350103901     MH3341403729     222.208    0.013      0          0.028      0          0         
MH3351703760.1   MH3351703760     MH3349903705     57.501     0.013      0          0.012      0          0         
MH3352103512.1   MH3352103512     MH3344503535     80.063     0.013      0          0.313      0          0         
MH3353602729.2   MH3353602729     MH3323502822     314.898    0.013      0          0          0          0         
MH3355003689.1   MH3355003689     MH3349903705     53.225     0.013      0          0.024      0          0         
MH3355903334.1   MH3355903334     MH3358103404     73.753     0.013      0          0.031      0          0         
MH3358103404.2   MH3358103404     MH3341803453     169.051    0.013      0          0          0          0         
MH3359002667.1   MH3359002667     MH3361702802     143.311    0.013      0          0          0          0         
MH3359302909.1   MH3359302909     MH3328403003     322.044    0.013      0          0.013      0          0         
MH3360102927.1   MH3360102927     MH3347203045     233.393    0.013      0          0.095      0          0         
MH3361003502.1   MH3361003502     MH3361503519     16.871     0.013      0          3.557      0          0         
MH3361503519.1   MH3361503519     MH3347403622     174.83     0.017      0          0          0          0         
MH3361702802.1   MH3361702802     MH3326202911     371.083    0.013      0          0.082      0          0         
MH3362702827.1   MH3362702827     MH3361702802     26.347     0.013      0          0.399      0          0         
MH3365103091.2   MH3365103091     MH3333803185     326.838    0.013      0          0          0          0         
MH3366502937.1   MH3366502937     MH3374103258     349.832    0.013      0          0.445      0          0         
MH3367302882.1   MH3367302882     MH3372602865     56.164     0.013      0          0          0          0         
MH3367403299.1   MH3367403299     MH3358103404     177.185    0.013      0          0          0          0         
MH3367803179.1   MH3367803179     MH3336503275     326.778    0.013      0          0          0          0         
MH3367803555.1   MH3367803555     MH3381803513     145.813    0.013      0          0          0          0         
MH3372602865.1   MH3372602865     MH3377303378     570.015    0.013      0.043      0.006      0          0         
MH3374103258.1   MH3374103258     MH3339203364     364.638    0.013      0          0          0          0         
MH3374903299.1   MH3374903299     MH3377303378     82.321     0.013      0          0.673      0          0         
MH3375803410.1   MH3375803410     MH3361503519     179.806    0.017      0          0          0          0         
MH3377303378.1   MH3377303378     MH3375803410     35.401     0.017      0          0.016      0          0         
MH3378302846.1   MH3378302846     MH3372602865     59.943     0.013      0          0.421      0          0         
MH3380503144.1   MH3380503144     MH3374103258     143.312    0.013      0          0          0          0         
MH3381803513.1   MH3381803513     MH3375803410     122.762    0.013      0          0.012      0          0         
MH3384503599.1   MH3384503599     MH3381803513     90.358     0.013      0          0          0          0         

[XSECTIONS]
;;Link           Shape        Geom1            Geom2      Geom3      Geom4      Barrels    Culvert   
;;-------------- ------------ ---------------- ---------- ---------- ---------- ---------- ----------
JP3314102514.1   CIRCULAR     0.2              0.2        0          0          1                    
JP3335503420.1   CIRCULAR     0.2              0.2        0          0          1                    
JP3345803001.1   CIRCULAR     0.2              0.2        0          0          1                    
MH3295504178.1   CIRCULAR     0.6              0.6        0          0          1                    
MH3303003382.1   CIRCULAR     0.2              0.2        0          0          1                    
MH3303403572.1   CIRCULAR     0.2              0.2        0          0          1                    
MH3307203688.1   CIRCULAR     0.2              0.2        0          0          1                    
MH3308002676.1   CIRCULAR     0.2              0.2        0          0          1                    
MH3308204278.1   CIRCULAR     0.2              0.2        0          0          1                    
MH3310303812.1   CIRCULAR     0.375            0.375      0          0          1                    
MH3310603809.1   CIRCULAR     0.3              0.3        0          0          1                    
MH3312003355.1   CIRCULAR     0.2              0.2        0          0          1                    
MH3312303547.1   CIRCULAR     0.2              0.2        0          0          1                    
MH3312803252.1   CIRCULAR     0.2              0.2        0          0          1                    
MH3313003662.1   CIRCULAR     0.2              0.2        0          0          1                    
MH3313203915.1   CIRCULAR     0.2              0.2        0          0          1                    
MH3313502815.1   CIRCULAR     0.2              0.2        0          0          1                    
MH3313803939.1   CIRCULAR     0.2              0.2        0          0          1                    
MH3313903246.1   CIRCULAR     0.2              0.2        0          0          1                    
MH3314603043.1   CIRCULAR     0.2              0.2        0          0          1                    
MH3314803346.1   CIRCULAR     0.2              0.2        0          0          1                    
MH3315202553.1   CIRCULAR     0.2              0.2        0          0          1                    
MH3316903340.1   CIRCULAR     0.2              0.2        0          0          1                    
MH3318002642.1   CIRCULAR     0.2              0.2        0          0          1                    
MH3320203524.1   CIRCULAR     0.2              0.2        0          0          1                    
MH3320502421.1   CIRCULAR     0.2              0.2        0          0          1                    
MH3320702732.1   CIRCULAR     0.3              0.3        0          0          1                    
MH3321504084.1   CIRCULAR     0.6              0.6        0          0          1                    
MH3322203122.1   CIRCULAR     0.6              0.6        0          0          1                    
MH3322402788.1   CIRCULAR     0.3              0.3        0          0          1                    
MH3322803420.1   CIRCULAR     0.2              0.2        0          0          1                    
MH3323502822.1   CIRCULAR     0.3              0.3        0          0          1                    
MH3323503756.1   CIRCULAR     0.25             0.25       0          0          1                    
MH3323704058.1   CIRCULAR     0.6              0.6        0          0          1                    
MH3326102617.1   CIRCULAR     0.2              0.2        0          0          1                    
MH3326202911.1   CIRCULAR     0.3              0.3        0          0          1                    
MH3328003307.1   CIRCULAR     0.2              0.2        0          0          1                    
MH3328403003.1   CIRCULAR     0.3              0.3        0          0          1                    
MH3329503824.1   CIRCULAR     0.6              0.6        0          0          1                    
MH3330302508.1   CIRCULAR     0.2              0.2        0          0          1                    
MH3331103095.1   CIRCULAR     0.6              0.6        0          0          1                    
MH3331602599.1   CIRCULAR     0.2              0.2        0          0          1                    
MH3331903433.1   CIRCULAR     0.2              0.2        0          0          1                    
MH3333803185.1   CIRCULAR     0.6              0.6        0          0          1                    
MH3334302596.1   CIRCULAR     0.2              0.2        0          0          1                    
MH3336503275.1   CIRCULAR     0.6              0.6        0          0          1                    
MH3339002587.1   CIRCULAR     0.2              0.2        0          0          1                    
MH3339203364.1   CIRCULAR     0.6              0.6        0          0          1                    
MH3339903679.1   CIRCULAR     0.6              0.6        0          0          1                    
MH3340204006.1   CIRCULAR     0.2              0.2        0          0          1                    
MH3341403729.1   CIRCULAR     0.6              0.6        0          0          1                    
MH3341803453.1   CIRCULAR     0.6              0.6        0          0          1                    
MH3344503535.1   CIRCULAR     0.6              0.6        0          0          1                    
MH3345702641.1   CIRCULAR     0.2              0.2        0          0          1                    
MH3347203045.2   CIRCULAR     0.2              0.2        0          0          1                    
MH3347403622.1   CIRCULAR     0.6              0.6        0          0          1                    
MH3349903705.1   CIRCULAR     0.2              0.2        0          0          1                    
MH3350103901.1   CIRCULAR     0.2              0.2        0          0          1                    
MH3351703760.1   CIRCULAR     0.2              0.2        0          0          1                    
MH3352103512.1   CIRCULAR     0.2              0.2        0          0          1                    
MH3353602729.2   CIRCULAR     0.2              0.2        0          0          1                    
MH3355003689.1   CIRCULAR     0.2              0.2        0          0          1                    
MH3355903334.1   CIRCULAR     0.2              0.2        0          0          1                    
MH3358103404.2   CIRCULAR     0.2              0.2        0          0          1                    
MH3359002667.1   CIRCULAR     0.2              0.2        0          0          1                    
MH3359302909.1   CIRCULAR     0.2              0.2        0          0          1                    
MH3360102927.1   CIRCULAR     0.2              0.2        0          0          1                    
MH3361003502.1   CIRCULAR     0.2              0.2        0          0          1                    
MH3361503519.1   CIRCULAR     0.6              0.6        0          0          1                    
MH3361702802.1   CIRCULAR     0.2              0.2        0          0          1                    
MH3362702827.1   CIRCULAR     0.2              0.2        0          0          1                    
MH3365103091.2   CIRCULAR     0.2              0.2        0          0          1                    
MH3366502937.1   CIRCULAR     0.2              0.2        0          0          1                    
MH3367302882.1   CIRCULAR     0.2              0.2        0          0          1                    
MH3367403299.1   CIRCULAR     0.2              0.2        0          0          1                    
MH3367803179.1   CIRCULAR     0.2              0.2        0          0          1                    
MH3367803555.1   CIRCULAR     0.2              0.2        0          0          1                    
MH3372602865.1   CIRCULAR     0.25             0.25       0          0          1                    
MH3374103258.1   CIRCULAR     0.2              0.2        0          0          1                    
MH3374903299.1   CIRCULAR     0.2              0.2        0          0          1                    
MH3375803410.1   CIRCULAR     0.6              0.6        0          0          1                    
MH3377303378.1   CIRCULAR     0.6              0.6        0          0          1                    
MH3378302846.1   CIRCULAR     0.2              0.2        0          0          1                    
MH3380503144.1   CIRCULAR     0.2              0.2        0          0          1                    
MH3381803513.1   CIRCULAR     0.2              0.2        0          0          1                    
MH3384503599.1   CIRCULAR     0.2              0.2        0          0          1                    

[INFLOWS]
;;Node           Constituent      Time Series      Type     Mfactor  Sfactor  Baseline Pattern
;;-------------- ---------------- ---------------- -------- -------- -------- -------- --------
MH3320502421     FLOW             ""               FLOW     1.0      1        0.126646
MH3339002587     FLOW             ""               FLOW     1.0      1        0.020552
MH3353602729     FLOW             ""               FLOW     1.0      1        0.006736
MH3359002667     FLOW             ""               FLOW     1.0      1        0.046791
MH3360102927     FLOW             ""               FLOW     1.0      1        0.00627 
MH3361702802     FLOW             ""               FLOW     1.0      1        0.00135 
MH3362702827     FLOW             ""               FLOW     1.0      1        0.02492 
MH3365103091     FLOW             ""               FLOW     1.0      1        0.008054
MH3372602865     FLOW             ""               FLOW     1.0      1        0.002399
MH3374103258     FLOW             ""               FLOW     1.0      1        0.002701
MH3374903299     FLOW             ""               FLOW     1.0      1        0.010455
MH3378302846     FLOW             ""               FLOW     1.0      1        0.030013

[DWF]
;;Node           Constituent      Baseline   Patterns  
;;-------------- ---------------- ---------- ----------
JP3314102514     FLOW             0.581359  "178_pat"
JP3335503420     FLOW             0.035776  "178_pat"
JP3345803001     FLOW             0.04472   "178_pat"
MH3303003382     FLOW             0.143104  "178_pat"
MH3303403572     FLOW             0.058136  "178_pat"
MH3307203688     FLOW             0.053664  "178_pat"
MH3308002676     FLOW             0.277263  "178_pat"
MH3308204278     FLOW             0.08944   "178_pat"
MH3310303812     FLOW             0.116272  "178_pat"
MH3312003355     FLOW             0.102856  "178_pat"
MH3312303547     FLOW             0.06708   "178_pat"
MH3312803252     FLOW             0.08944   "178_pat"
MH3313003662     FLOW             0.076024  "178_pat"
MH3313203915     FLOW             0.080496  "178_pat"
MH3313502815     FLOW             0.13416   "178_pat"
MH3313803939     FLOW             0.080496  "178_pat"
MH3313903246     FLOW             0.116272  "178_pat"
MH3314603043     FLOW             0.080496  "178_pat"
MH3314803346     FLOW             0.031304  "178_pat"
MH3315202553     FLOW             0.093912  "178_pat"
MH3316903340     FLOW             0.143104  "178_pat"
MH3318002642     FLOW             0.107328  "178_pat"
MH3320203524     FLOW             0.084968  "178_pat"
MH3320502421     FLOW             0.681173  "178_pat"
MH3320702732     FLOW             0.031304  "178_pat"
MH3322203122     FLOW             0.147576  "178_pat"
MH3322402788     FLOW             0.02236   "178_pat"
MH3322803420     FLOW             0.1118    "178_pat"
MH3323502822     FLOW             0.120744  "178_pat"
MH3323503756     FLOW             0.013416  "178_pat"